/*--------------------------------*- C++ -*----------------------------------*\
| =========                 |                                                 |
| \\      /  F ield         | OpenFOAM: The Open Source CFD Toolbox           |
|  \\    /   O peration     | Version:  2.2.0                                 |
|   \\  /    A nd           | Web:      www.OpenFOAM.org                      |
|    \\/     M anipulation  |                                                 |
\*---------------------------------------------------------------------------*/
FoamFile
{
    version     2.0;
    format      ascii;
    class       dictionary;
    object      motionProperties;
}
// * * * * * * * * * * * * * * * * * * * * * * * * * * * * * * * * * * * * * //

dynamicFvMesh      dynamicMotionSolverFvMesh;

motionSolverLibs ("libfvMotionSolvers.so");

solver            displacementLaplacian;

displacementLaplacianCoeffs
{
    diffusivity       inverseDistance (floatingObject);
}

tabulated6DoFMotionCoeffs
{
    solidBodyMotionFunction tabulated6DoFMotion;
    tabulated6DoFMotionCoeffs
    {
        CofG            ( 0 0 0 );
        timeDataFileName "$FOAM_CASE/constant/6DoF.dat";
    }
}


// ************************************************************************* //
