/*--------------------------------*- C++ -*----------------------------------*\
| =========                 |                                                 |
| \\      /  F ield         | OpenFOAM: The Open Source CFD Toolbox           |
|  \\    /   O peration     | Version:  2.2.1                                 |
|   \\  /    A nd           | Web:      www.OpenFOAM.org                      |
|    \\/     M anipulation  |                                                 |
\*---------------------------------------------------------------------------*/
FoamFile
{
    version     2.0;
    format      ascii;
    class       dictionary;
    location    "system";
    object      controlDict;
}
// * * * * * * * * * * * * * * * * * * * * * * * * * * * * * * * * * * * * * //


application     interDyMFoam;

startFrom       startTime;

startTime       0;

stopAt          endTime;

endTime         0.5;

deltaT          0.001;

/*writeControl    adjustableRunTime;*/

/*writeInterval   0.05;*/

writeControl    timeStep;

writeInterval   10;

purgeWrite      0;

writeFormat     ascii;

writePrecision  6;

writeCompression ascii;

timeFormat      general;

timePrecision   6;

runTimeModifiable yes;

adjustTimeStep  no;

maxCo           0.5;
maxAlphaCo      0.5;

maxDeltaT       0.01;

libs (
    "libofBookDynamicFvMesh.so"
    "libutilityFunctionObjects.so"
);

functions
{
    courantNo
    {
        type CourantNo; 
        phiName phi; 
        rhoName rho; 
        outputControl outputTime; 
    }
}


// ************************************************************************* //
