// -*- C++ -*-
// File generated by PyFoam - sorry for the ugliness

FoamFile
{
version 2.0;
format ascii;
class dictionary;
object blockMeshDict;
}

convertToMeters 1.0;

vertices
(
    (-1 -1 -1)
    (1 -1 -1)
    (1 1 -1)
    (-1 1 -1)
    (-1 -1 1)
    (1 -1 1)
    (1 1 1)
    (-1 1 1)
);

blocks
(
    hex (0 1 2 3 4 5 6 7) (20 20 20) simpleGrading (1 1 1)
);

boundary
(
    sides
    {
        faces
        (
            (4 7 3 0)
            (6 5 1 2)
            (5 4 0 1)
            (7 6 2 3)
            (3 2 1 0)
            (4 5 6 7)
        );
        type patch;
    }
);

edges();
