// -*- C++ -*-
// File generated by PyFoam - sorry for the ugliness

FoamFile
{
 version 2.0;
 format ascii; 	
 class dictionary; 	
 object blockMeshDict; 	
}

convertToMeters 1.0;

vertices
  (
    (0 0 0)
    (1 0 0)
    (1 1 0)
    (0 1 0)
    (0 0 1)
    (1 0 1)
    (1 1 1)
    (0 1 1)
  ); 	

blocks
  (
    hex (0 1 2 3 4 5 6 7) (10 10 10) simpleGrading (1.000000 1.000000 1.000000)
  ); 	

boundary
  (
    XMIN

    {
      faces
        (

          (
            4
            7
            3
            0
          )
        );
      type patch;

    }
    XMAX

    {
      faces
        (

          (
            6
            5
            1
            2
          )
        );
      type patch;

    }
    YMIN

    {
      faces
        (

          (
            5
            4
            0
            1
          )
        );
      type patch;

    }
    YMAX

    {
      faces
        (

          (
            7
            6
            2
            3
          )
        );
      type patch;

    }
    ZMIN

    {
      faces
        (

          (
            3
            2
            1
            0
          )
        );
      type patch;

    }
    ZMAX

    {
      faces
        (

          (
            4
            5
            6
            7
          )
        );
      type patch;

    }
  ); 	

edges
  (
  ); 	

